15
Coordinates from ORCA-job opt_w_1_rest
C     -0.55733    1.44750    0.62966
C     -2.07698    1.52202    0.53976
H     -2.50215    0.49966    0.10792
H     -2.52880    1.60435    1.54291
O     -2.48822    2.41701   -0.17917
H     -0.22751    0.61120    1.26769
H     -0.12673    1.31034   -0.37550
H     -0.15798    2.38641    1.04482
H     -1.71185    2.16330   -1.97378
O     -3.09922   -0.20710   -1.66758
H     -2.26946    0.18184   -0.51471
H     -3.80560    0.44746   -1.73645
O     -1.21842    1.86159   -2.73867
H     -2.27713    0.27132   -1.86969
H     -0.32736    1.61479   -3.01844
